/*--------------------------------*- C++ -*----------------------------------*\
| =========                 |                                                 |
| \\      /  F ield         | OpenFOAM Extend Project: Open Source CFD        |
|  \\    /   O peration     | Version:  1.6-ext                               |
|   \\  /    A nd           | Web:      www.extend-project.de                 |
|    \\/     M anipulation  |                                                 |
\*---------------------------------------------------------------------------*/
FoamFile
{
    version     2.0;
    format      ascii;
    class       dictionary;
    object      RASProperties;
}
// * * * * * * * * * * * * * * * * * * * * * * * * * * * * * * * * * * * * * //

RASModel            turbulentPotential;

turbulence          on;

printCoeffs         on;

turbulentPotentialCoeffs{

   solveK              true;
   solveEps            true;
   solvePsi            true;
   solvePhi            true;
   solveNut            true;
   timeScaleEps        epsilon;
   prodType            psi;
   pMix  			   0.33;
   eqnSigmaK           false;
   eqnSigmaEps         false;
   eqnSigmaPhi         false;
   eqnSigmaPsi         false;
   eqncEp1             true;
   eqncEp2             false;
   eqncMu 	       false;
   eqnEpsHat           mod;
   nutType             phi;
   sigmaKInit          1.0; 
   sigmaEpsInit        0.83;
   sigmaEpsVisc        1.0;
   sigmaPhiInit        0.41;
   sigmaPsiInit        1.0;
   psiNuFrac           1.0;
   phiNuFrac           1.0;
   phiV1               0.0;
   cT                  0.0;
   cD1                 1.0;
   cD2                 1.2;
   cD3				   0.15;
   cD4				   1.0;
   cPphi               1.8;
   cP1                 1.8; 
   cP2                 0.6;
   cP3                 0.12;
   cP4                 0.85714;
   cEp1                1.44;
   cEp2con			   1.83;
   cMu                 0.21;
   cPr                 1.0;
   cEhr                0.0019;
   cVv1                0.0;
   cTv1                0.0;
   debugWrite          false;
   tslimiter           false;
   lslimiter           false;
   phiType             none;
   psiProd             psi;
   gT1                 0.0;
   gT2                 0.0;
   gT3                 0.0;
   cEhmP               0.79;
   cEhmM			   10.0;
   cEhmPK			   0.09;
   cNF                 0.21;
   cPw                 18;
   nutRatMax 		   1e5;
}


boundaryCoeffs{
   tslimiter    false;
   nutRatMax     1e5;
   cMu		0.21;
   betaK	0.09;
}

// ************************************************************************* //

